examples/opendss/Subred_Residencial_Cigre_VLN_Node.Txt

LINE-GROUND and LINE-LINE VOLTAGES BY BUS & NODE

Bus       Node    VLN (kV)   Angle      pu     Base kV    Node-Node   VLL (kV)  Angle      pu

SOURCEBUS 1       11.547 /_    0.0         1    20.000        1-2         20 /_   30.0         1
   -      2       11.547 /_ -120.0         1    20.000        2-3         20 /_  -90.0         1
   -      3       11.547 /_  120.0         1    20.000        3-1         20 /_  150.0         1
R1 ...... 1      0.22459 /_  -31.7    0.9725     0.400        1-2    0.39114 /_   -1.9   0.97785
   -      2      0.22585 /_ -152.2   0.97795     0.400        2-3    0.39161 /_ -121.8   0.97903
   -      3      0.22783 /_   88.4   0.98652     0.400        3-1    0.39202 /_  118.1   0.98005
   -      4    0.0016636 /_  113.3 0.0072035     0.400
R2 ...... 1      0.21628 /_  -32.0   0.93652     0.400        1-2    0.37774 /_   -2.0   0.94436
   -      2      0.21904 /_ -152.4   0.94845     0.400        2-3    0.38109 /_ -121.9   0.95273
   -      3      0.22201 /_   88.1   0.96132     0.400        3-1    0.37968 /_  117.6   0.94921
   -      4   0.00025667 /_  113.8 0.0011114     0.400
R3 ...... 1      0.20798 /_  -32.3   0.90056     0.400        1-2    0.36435 /_   -2.1   0.91087
   -      2      0.21223 /_ -152.6   0.91898     0.400        2-3    0.37057 /_ -122.1   0.92643
   -      3      0.21619 /_   87.7   0.93615     0.400        3-1    0.36738 /_  117.0   0.91844
   -      4    0.0011495 /_  -67.0 0.0049773     0.400
R4 ...... 1      0.20018 /_  -32.6   0.86682     0.400        1-2    0.35178 /_   -2.2   0.87946
   -      2      0.20586 /_ -152.7   0.89141     0.400        2-3    0.36076 /_ -122.3    0.9019
   -      3      0.21078 /_   87.3   0.91272     0.400        3-1     0.3559 /_  116.5   0.88974
   -      4    0.0024892 /_  -66.7  0.010779     0.400
R5 ...... 1      0.19467 /_  -32.9   0.84294     0.400        1-2    0.34288 /_   -2.3   0.85721
   -      2      0.20134 /_ -152.8   0.87181     0.400        2-3    0.35376 /_ -122.4   0.88441
   -      3      0.20692 /_   87.1   0.89599     0.400        3-1    0.34774 /_  116.1   0.86934
   -      4    0.0034249 /_  -67.2   0.01483     0.400
R6 ...... 1      0.18916 /_  -33.1   0.81908     0.400        1-2    0.33399 /_   -2.4   0.83497
   -      2      0.19681 /_ -152.9   0.85221     0.400        2-3    0.34677 /_ -122.6   0.86692
   -      3      0.20306 /_   86.8   0.87928     0.400        3-1    0.33959 /_  115.7   0.84898
   -      4    0.0043607 /_  -67.4  0.018882     0.400
R7 ...... 1      0.18578 /_  -33.3   0.80443     0.400        1-2    0.32854 /_   -2.4   0.82135
   -      2      0.19406 /_ -153.0    0.8403     0.400        2-3    0.34254 /_ -122.6   0.85635
   -      3      0.20074 /_   86.6   0.86921     0.400        3-1    0.33464 /_  115.4   0.83661
   -      4    0.0049553 /_  -67.4  0.021457     0.400
R8 ...... 1      0.18239 /_  -33.4   0.78979     0.400        1-2    0.32309 /_   -2.4   0.80774
   -      2      0.19131 /_ -153.1    0.8284     0.400        2-3    0.33831 /_ -122.7   0.84577
   -      3      0.19841 /_   86.5   0.85914     0.400        3-1     0.3297 /_  115.1   0.82425
   -      4    0.0055498 /_  -67.4  0.024032     0.400
R9 ...... 1      0.17902 /_  -33.6   0.77518     0.400        1-2    0.31765 /_   -2.5   0.79412
   -      2      0.18855 /_ -153.1   0.81646     0.400        2-3    0.33408 /_ -122.8    0.8352
   -      3      0.19609 /_   86.3    0.8491     0.400        3-1    0.32477 /_  114.9   0.81191
   -      4    0.0061475 /_  -67.3  0.026619     0.400
R10 ..... 1      0.17706 /_  -33.7    0.7667     0.400        1-2     0.3145 /_   -2.5   0.78624
   -      2      0.18697 /_ -153.2   0.80959     0.400        2-3    0.33165 /_ -122.8   0.82911
   -      3      0.19475 /_   86.2   0.84331     0.400        3-1    0.32192 /_  114.7    0.8048
   -      4    0.0064965 /_  -67.3  0.028131     0.400
R11 ..... 1      0.20616 /_  -32.2   0.89271     0.400        1-2    0.36128 /_   -2.0   0.90321
   -      2      0.21051 /_ -152.4   0.91153     0.400        2-3    0.36769 /_ -122.0   0.91924
   -      3      0.21455 /_   87.8   0.92901     0.400        3-1    0.36435 /_  117.1   0.91088
   -      4    0.0012489 /_  -67.7  0.005408     0.400
R12 ..... 1      0.19042 /_  -32.2   0.82454     0.400        1-2    0.33579 /_   -1.6   0.83948
   -      2      0.19737 /_ -152.2   0.85464     0.400        2-3    0.34704 /_ -121.8   0.86761
   -      3      0.20302 /_   87.7   0.87911     0.400        3-1    0.34057 /_  116.7   0.85144
   -      4    0.0036591 /_  -65.0  0.015845     0.400
R13 ..... 1      0.18067 /_  -31.7   0.78231     0.400        1-2    0.31985 /_   -0.9   0.79962
   -      2       0.1889 /_ -151.6   0.81796     0.400        2-3    0.33336 /_ -121.2    0.8334
   -      3      0.19527 /_   88.1   0.84554     0.400        3-1    0.32526 /_  116.9   0.81314
   -      4    0.0048308 /_  -64.1  0.020918     0.400
R14 ..... 1      0.17094 /_  -31.1   0.74017     0.400        1-2    0.30395 /_   -0.1   0.75989
   -      2      0.18044 /_ -150.9   0.78134     0.400        2-3    0.31971 /_ -120.6   0.79927
   -      3      0.18753 /_   88.5   0.81202     0.400        3-1    0.30994 /_  117.1   0.77486
   -      4    0.0060143 /_  -63.5  0.026043     0.400
R15 ..... 1      0.16122 /_  -30.5   0.69811     0.400        1-2    0.28812 /_    0.7   0.72031
   -      2      0.17201 /_ -150.2   0.74483     0.400        2-3     0.3061 /_ -119.9   0.76525
   -      3       0.1798 /_   88.9   0.77855     0.400        3-1    0.29464 /_  117.4   0.73659
   -      4    0.0071982 /_  -63.1  0.031169     0.400
R16 ..... 1      0.18146 /_  -32.6   0.78572     0.400        1-2    0.32122 /_   -1.8   0.80305
   -      2      0.18985 /_ -152.4   0.82206     0.400        2-3    0.33537 /_ -122.1   0.83843
   -      3      0.19658 /_   87.2   0.85121     0.400        3-1    0.32715 /_  115.9   0.81789
   -      4    0.0050919 /_  -67.6  0.022049     0.400
R17 ..... 1      0.17386 /_  -33.3   0.75282     0.400        1-2    0.30918 /_   -2.1   0.77295
   -      2        0.184 /_ -152.8   0.79673     0.400        2-3     0.3267 /_ -122.4   0.81675
   -      3       0.1919 /_   86.5   0.83094     0.400        3-1    0.31655 /_  115.0   0.79137
   -      4    0.0067309 /_  -67.4  0.029146     0.400
R18 ..... 1      0.16994 /_  -33.2   0.73585     0.400        1-2    0.30286 /_   -1.9   0.75715
   -      2      0.18074 /_ -152.7   0.78264     0.400        2-3    0.32161 /_ -122.3   0.80402
   -      3      0.18906 /_   86.5   0.81865     0.400        3-1    0.31066 /_  114.9   0.77664
   -      4    0.0073533 /_  -67.2  0.031841     0.400
